Version 4.1
SHEET 1 2140 1492
WIRE 0 0 -288 0
WIRE 96 0 0 0
WIRE -288 64 -288 0
WIRE 96 64 96 0
WIRE 144 64 96 64
WIRE 240 64 144 64
WIRE 640 64 528 64
WIRE -288 176 -288 144
WIRE 96 176 96 64
WIRE 240 176 96 176
WIRE 640 176 640 128
WIRE 640 176 528 176
WIRE 736 176 640 176
WIRE 864 176 816 176
WIRE 880 176 864 176
WIRE 1136 176 1120 176
WIRE 1168 176 1136 176
WIRE 1216 176 1168 176
WIRE 1264 176 1216 176
WIRE 1312 176 1264 176
WIRE 1360 176 1312 176
WIRE 1648 176 1360 176
WIRE 1216 240 1168 240
WIRE 1264 240 1216 240
WIRE 1312 240 1264 240
WIRE 1360 240 1312 240
WIRE 48 288 32 288
WIRE 128 288 112 288
WIRE 240 288 208 288
WIRE 32 352 32 288
WIRE 608 400 528 400
WIRE 624 400 608 400
WIRE 880 400 880 176
WIRE 880 400 704 400
WIRE 240 624 176 624
WIRE 576 624 528 624
WIRE 176 640 176 624
WIRE 384 704 384 656
WIRE 96 944 96 176
WIRE 144 944 96 944
WIRE 240 944 144 944
WIRE 656 944 528 944
WIRE 96 1056 96 944
WIRE 240 1056 96 1056
WIRE 656 1056 656 1008
WIRE 656 1056 528 1056
WIRE 752 1056 656 1056
WIRE 864 1056 832 1056
WIRE 912 1056 864 1056
WIRE 976 1056 912 1056
WIRE 1024 1056 976 1056
WIRE 160 1168 80 1168
WIRE 736 1168 528 1168
WIRE 784 1168 736 1168
WIRE 864 1168 864 1056
WIRE 240 1392 144 1392
WIRE 384 1472 384 1424
FLAG 384 704 0
FLAG 384 1472 0
FLAG -288 176 0
FLAG 608 480 0
FLAG 736 1248 0
FLAG 912 1120 0
FLAG 1024 1136 0
FLAG 976 1056 vout2
FLAG 0 0 vin
FLAG 528 576 0
FLAG 240 1344 0
FLAG 32 352 0
FLAG 240 512 0
FLAG 176 720 0
FLAG 144 1472 0
FLAG 240 1280 0
FLAG 80 1232 0
FLAG 576 688 0
FLAG 144 128 0
FLAG 144 1008 0
FLAG 864 176 vout1
FLAG 1136 176 vout1
FLAG 1168 240 0
FLAG 1648 256 0
SYMBOL PowerProducts/ADP5054_chan1_2 384 352 R0
SYMATTR InstName U1
SYMBOL PowerProducts/ADP5054_chan3_4 384 1168 R0
SYMATTR InstName U2
SYMBOL Voltage -288 48 R0
SYMATTR InstName V1
SYMATTR Value 5
SYMBOL Cap 624 64 R0
SYMATTR InstName C1
SYMATTR Value 0.1µ
SYMBOL ind 720 192 R270
WINDOW 0 32 56 VTop 2
WINDOW 3 5 56 VBottom 2
SYMATTR InstName L2
SYMATTR Value 1µ
SYMBOL Res 720 384 R90
WINDOW 0 0 56 VBottom 2
WINDOW 3 32 56 VTop 2
SYMATTR InstName R1
SYMATTR Value 30k
SYMBOL Res 624 496 R180
WINDOW 0 36 76 Left 2
WINDOW 3 36 40 Left 2
SYMATTR InstName R2
SYMATTR Value 120k
SYMBOL Cap 640 944 R0
SYMATTR InstName C4
SYMATTR Value 0.1µ
SYMBOL Ind 736 1072 R270
WINDOW 0 32 56 VTop 2
WINDOW 3 5 56 VBottom 2
SYMATTR InstName L1
SYMATTR Value 1µ
SYMBOL Cap 896 1056 R0
SYMATTR InstName C5
SYMATTR Value 47µ
SYMBOL Res 1008 1040 R0
SYMATTR InstName R4
SYMATTR Value 10
SYMBOL Res 752 1264 R180
WINDOW 0 36 76 Left 2
WINDOW 3 36 40 Left 2
SYMATTR InstName R5
SYMATTR Value 30k
SYMBOL Res 880 1152 R90
WINDOW 0 0 56 VBottom 2
WINDOW 3 32 56 VTop 2
SYMATTR InstName R6
SYMATTR Value 15k
SYMBOL Res 160 624 R0
SYMATTR InstName R8
SYMATTR Value 31.6k
SYMBOL Res 128 1376 R0
SYMATTR InstName R9
SYMATTR Value 31.6k
SYMBOL Res 256 1152 R90
WINDOW 0 0 56 VBottom 2
WINDOW 3 32 56 VTop 2
SYMATTR InstName R10
SYMATTR Value 3.6k
SYMBOL Cap 96 1232 R180
WINDOW 0 24 56 Left 2
WINDOW 3 24 8 Left 2
SYMATTR InstName C7
SYMATTR Value 6.8n
SYMBOL Cap 560 624 R0
SYMATTR InstName C9
SYMATTR Value 1µ
SYMBOL Res 224 272 R90
WINDOW 0 0 56 VBottom 2
WINDOW 3 32 56 VTop 2
SYMATTR InstName R3
SYMATTR Value 10k
SYMBOL Cap 112 272 R90
WINDOW 0 0 32 VBottom 2
WINDOW 3 32 32 VTop 2
SYMATTR InstName C6
SYMATTR Value 2.2n
SYMBOL Cap 128 64 R0
SYMATTR InstName C3
SYMATTR Value 10µ
SYMBOL Cap 128 944 R0
SYMATTR InstName C10
SYMATTR Value 10µ
SYMBOL Cap 1152 176 R0
SYMATTR InstName C2
SYMATTR Value 47µ
SYMBOL Cap 1200 176 R0
SYMATTR InstName C8
SYMATTR Value 47µ
SYMBOL Cap 1248 176 R0
SYMATTR InstName C11
SYMATTR Value 47µ
SYMBOL Cap 1296 176 R0
SYMATTR InstName C12
SYMATTR Value 47µ
SYMBOL Cap 1344 176 R0
SYMATTR InstName C13
SYMATTR Value 47µ
SYMBOL current 1648 176 R0
WINDOW 123 0 0 Left 0
WINDOW 39 0 0 Left 0
SYMATTR InstName I1
SYMATTR Value PULSE(0 0.5 0.01n 0.01n 1n 2n)
TEXT -232 -184 Left 2 !.tran 2.5m startup
TEXT 248 -24 Left 2 ;vout = 0.8 * (1+rtop/rbot)
TEXT 1152 104 Left 2 ;1V/10R = 0.1A, vccint draws 100mA
TEXT 1112 80 Left 2 ;replace with actual cap values and amounts?
