Version 4.1
SHEET 1 2552 2692
WIRE 0 0 -288 0
WIRE 96 0 0 0
WIRE -288 64 -288 0
WIRE 96 64 96 0
WIRE 144 64 96 64
WIRE 240 64 144 64
WIRE 640 64 528 64
WIRE -288 176 -288 144
WIRE 96 176 96 64
WIRE 240 176 96 176
WIRE 640 176 640 128
WIRE 640 176 528 176
WIRE 736 176 640 176
WIRE 880 176 816 176
WIRE 1024 176 880 176
WIRE 1168 176 1024 176
WIRE 1648 176 1168 176
WIRE 48 288 32 288
WIRE 128 288 112 288
WIRE 240 288 208 288
WIRE 32 352 32 288
WIRE 608 400 528 400
WIRE 624 400 608 400
WIRE 880 400 880 176
WIRE 880 400 704 400
WIRE 896 512 800 512
WIRE 896 576 896 512
WIRE 944 576 896 576
WIRE 1040 576 944 576
WIRE 1440 576 1328 576
WIRE 240 624 176 624
WIRE 576 624 528 624
WIRE 176 640 176 624
WIRE 896 688 896 576
WIRE 1040 688 896 688
WIRE 1440 688 1440 640
WIRE 1440 688 1328 688
WIRE 1536 688 1440 688
WIRE 1680 688 1616 688
WIRE 1824 688 1680 688
WIRE 1968 688 1824 688
WIRE 2448 688 1968 688
WIRE 384 704 384 656
WIRE 848 800 832 800
WIRE 928 800 912 800
WIRE 1040 800 1008 800
WIRE 832 864 832 800
WIRE 1408 912 1328 912
WIRE 1424 912 1408 912
WIRE 1680 912 1680 688
WIRE 1680 912 1504 912
WIRE 1040 1136 976 1136
WIRE 1376 1136 1328 1136
WIRE 976 1152 976 1136
WIRE 1184 1216 1184 1168
WIRE 112 1488 96 1488
WIRE 144 1488 112 1488
WIRE 240 1488 144 1488
WIRE 656 1488 528 1488
WIRE 96 1600 96 1488
WIRE 240 1600 96 1600
WIRE 656 1600 656 1552
WIRE 656 1600 528 1600
WIRE 752 1600 656 1600
WIRE 864 1600 832 1600
WIRE 912 1600 864 1600
WIRE 976 1600 912 1600
WIRE 1024 1600 976 1600
WIRE 160 1712 80 1712
WIRE 736 1712 528 1712
WIRE 784 1712 736 1712
WIRE 864 1712 864 1600
WIRE 240 1936 144 1936
WIRE 384 2016 384 1968
WIRE 912 2144 896 2144
WIRE 944 2144 912 2144
WIRE 1040 2144 944 2144
WIRE 1456 2144 1328 2144
WIRE 896 2256 896 2144
WIRE 1040 2256 896 2256
WIRE 1456 2256 1456 2208
WIRE 1456 2256 1328 2256
WIRE 1552 2256 1456 2256
WIRE 1664 2256 1632 2256
WIRE 1712 2256 1664 2256
WIRE 1776 2256 1712 2256
WIRE 1824 2256 1776 2256
WIRE 960 2368 880 2368
WIRE 1536 2368 1328 2368
WIRE 1584 2368 1536 2368
WIRE 1664 2368 1664 2256
WIRE 1040 2592 944 2592
WIRE 1184 2672 1184 2624
FLAG 384 704 0
FLAG 384 2016 0
FLAG -288 176 0
FLAG 608 480 0
FLAG 736 1792 0
FLAG 912 1664 0
FLAG 1024 1680 0
FLAG 976 1600 vout3
FLAG 0 0 vin
FLAG 528 576 0
FLAG 240 1888 0
FLAG 32 352 0
FLAG 240 512 0
FLAG 176 720 0
FLAG 144 2016 0
FLAG 240 1824 0
FLAG 80 1776 0
FLAG 576 688 0
FLAG 144 128 0
FLAG 144 1552 0
FLAG 1024 176 vout1
FLAG 1648 256 0
FLAG 1184 1216 0
FLAG 1408 992 0
FLAG 800 512 vin
FLAG 1328 1088 0
FLAG 832 864 0
FLAG 1040 1024 0
FLAG 976 1232 0
FLAG 1376 1200 0
FLAG 944 640 0
FLAG 1824 688 vout2
FLAG 2448 768 0
FLAG 112 1488 vin
FLAG 1968 752 0
FLAG 1168 240 0
FLAG 1184 2672 0
FLAG 1536 2448 0
FLAG 1712 2320 0
FLAG 1824 2336 0
FLAG 1776 2256 vout4
FLAG 1040 2544 0
FLAG 944 2672 0
FLAG 1040 2480 0
FLAG 880 2432 0
FLAG 944 2208 0
FLAG 912 2144 vin
SYMBOL PowerProducts/ADP5054_chan1_2 384 352 R0
SYMATTR InstName U1
SYMBOL PowerProducts/ADP5054_chan3_4 384 1712 R0
SYMATTR InstName U2
SYMBOL Voltage -288 48 R0
SYMATTR InstName V1
SYMATTR Value 5
SYMBOL Cap 624 64 R0
SYMATTR InstName C1
SYMATTR Value 0.1µ
SYMBOL ind 720 192 R270
WINDOW 0 32 56 VTop 2
WINDOW 3 5 56 VBottom 2
SYMATTR InstName L2
SYMATTR Value 1µ
SYMBOL Res 720 384 R90
WINDOW 0 0 56 VBottom 2
WINDOW 3 32 56 VTop 2
SYMATTR InstName R1
SYMATTR Value 30k
SYMBOL Res 624 496 R180
WINDOW 0 36 76 Left 2
WINDOW 3 36 40 Left 2
SYMATTR InstName R2
SYMATTR Value 120k
SYMBOL Cap 640 1488 R0
SYMATTR InstName C4
SYMATTR Value 0.1µ
SYMBOL Ind 736 1616 R270
WINDOW 0 32 56 VTop 2
WINDOW 3 5 56 VBottom 2
SYMATTR InstName L1
SYMATTR Value 1µ
SYMBOL Cap 896 1600 R0
SYMATTR InstName C5
SYMATTR Value 47µ
SYMBOL Res 1008 1584 R0
SYMATTR InstName R4
SYMATTR Value 10
SYMBOL Res 752 1808 R180
WINDOW 0 36 76 Left 2
WINDOW 3 36 40 Left 2
SYMATTR InstName R5
SYMATTR Value 30k
SYMBOL Res 880 1696 R90
WINDOW 0 0 56 VBottom 2
WINDOW 3 32 56 VTop 2
SYMATTR InstName R6
SYMATTR Value 15k
SYMBOL Res 160 624 R0
SYMATTR InstName R8
SYMATTR Value 31.6k
SYMBOL Res 128 1920 R0
SYMATTR InstName R9
SYMATTR Value 31.6k
SYMBOL Res 256 1696 R90
WINDOW 0 0 56 VBottom 2
WINDOW 3 32 56 VTop 2
SYMATTR InstName R10
SYMATTR Value 10k
SYMBOL Cap 96 1776 R180
WINDOW 0 24 56 Left 2
WINDOW 3 24 8 Left 2
SYMATTR InstName C7
SYMATTR Value 2.2n
SYMBOL Cap 560 624 R0
SYMATTR InstName C9
SYMATTR Value 1µ
SYMBOL Res 224 272 R90
WINDOW 0 0 56 VBottom 2
WINDOW 3 32 56 VTop 2
SYMATTR InstName R3
SYMATTR Value 10k
SYMBOL Cap 112 272 R90
WINDOW 0 0 32 VBottom 2
WINDOW 3 32 32 VTop 2
SYMATTR InstName C6
SYMATTR Value 2.2n
SYMBOL Cap 128 64 R0
SYMATTR InstName C3
SYMATTR Value 10µ
SYMBOL Cap 128 1488 R0
SYMATTR InstName C10
SYMATTR Value 10µ
SYMBOL Cap 1152 176 R0
SYMATTR InstName C2
SYMATTR Value 47µ
SYMBOL res 1632 160 R0
SYMATTR InstName Rload
SYMATTR Value 9
SYMBOL PowerProducts/ADP5054_chan1_2 1184 864 R0
SYMATTR InstName U3
SYMBOL Cap 1424 576 R0
SYMATTR InstName C14
SYMATTR Value 0.1µ
SYMBOL ind 1520 704 R270
WINDOW 0 32 56 VTop 2
WINDOW 3 5 56 VBottom 2
SYMATTR InstName L3
SYMATTR Value 1µ
SYMBOL Res 1520 896 R90
WINDOW 0 0 56 VBottom 2
WINDOW 3 32 56 VTop 2
SYMATTR InstName R7
SYMATTR Value 30k
SYMBOL Res 1424 1008 R180
WINDOW 0 36 76 Left 2
WINDOW 3 36 40 Left 2
SYMATTR InstName R11
SYMATTR Value 24K
SYMBOL Res 960 1136 R0
SYMATTR InstName R12
SYMATTR Value 31.6k
SYMBOL Cap 1360 1136 R0
SYMATTR InstName C15
SYMATTR Value 1µ
SYMBOL Res 1024 784 R90
WINDOW 0 0 56 VBottom 2
WINDOW 3 32 56 VTop 2
SYMATTR InstName R13
SYMATTR Value 10k
SYMBOL Cap 912 784 R90
WINDOW 0 0 32 VBottom 2
WINDOW 3 32 32 VTop 2
SYMATTR InstName C16
SYMATTR Value 6.8n
SYMBOL Cap 928 576 R0
SYMATTR InstName C17
SYMATTR Value 10µ
SYMBOL Cap 1952 688 R0
SYMATTR InstName C18
SYMATTR Value 47µ
SYMBOL res 2432 672 R0
SYMATTR InstName Rload1
SYMATTR Value 9
SYMBOL PowerProducts/ADP5054_chan3_4 1184 2368 R0
SYMATTR InstName U4
SYMBOL Cap 1440 2144 R0
SYMATTR InstName C8
SYMATTR Value 0.1µ
SYMBOL Ind 1536 2272 R270
WINDOW 0 32 56 VTop 2
WINDOW 3 5 56 VBottom 2
SYMATTR InstName L4
SYMATTR Value 1µ
SYMBOL Cap 1696 2256 R0
SYMATTR InstName C11
SYMATTR Value 47µ
SYMBOL Res 1808 2240 R0
SYMATTR InstName R14
SYMATTR Value 10
SYMBOL Res 1552 2464 R180
WINDOW 0 36 76 Left 2
WINDOW 3 36 40 Left 2
SYMATTR InstName R15
SYMATTR Value 24k
SYMBOL Res 1680 2352 R90
WINDOW 0 0 56 VBottom 2
WINDOW 3 32 56 VTop 2
SYMATTR InstName R16
SYMATTR Value 75k
SYMBOL Res 928 2576 R0
SYMATTR InstName R17
SYMATTR Value 31.6k
SYMBOL Res 1056 2352 R90
WINDOW 0 0 56 VBottom 2
WINDOW 3 32 56 VTop 2
SYMATTR InstName R18
SYMATTR Value 10k
SYMBOL Cap 896 2432 R180
WINDOW 0 24 56 Left 2
WINDOW 3 24 8 Left 2
SYMATTR InstName C12
SYMATTR Value 2.2n
SYMBOL Cap 928 2144 R0
SYMATTR InstName C13
SYMATTR Value 10µ
TEXT -232 -184 Left 2 !.tran 2.5m startup
TEXT 248 -24 Left 2 ;vout = 0.8 * (1+rtop/rbot)
TEXT 1152 104 Left 2 ;1V/10R = 0.1A, vccint draws 100mA
TEXT 1112 80 Left 2 ;replace with actual cap values and amounts?
TEXT 1952 616 Left 2 ;1V/10R = 0.1A, vccint draws 100mA
TEXT 1912 592 Left 2 ;replace with actual cap values and amounts?
