Version 4.1
SHEET 1 1176 680
WIRE -160 -208 -384 -208
WIRE 16 -208 -160 -208
WIRE 80 -208 16 -208
WIRE 432 -208 368 -208
WIRE 432 -192 432 -208
WIRE -384 -160 -384 -208
WIRE 16 -96 16 -208
WIRE 80 -96 80 -112
WIRE 80 -96 16 -96
WIRE 432 -96 432 -128
WIRE 432 -96 368 -96
WIRE 512 -96 432 -96
WIRE 624 -96 592 -96
WIRE 864 -96 624 -96
WIRE 992 -96 864 -96
WIRE 1088 -96 992 -96
WIRE 864 -64 864 -96
WIRE 1088 -64 1088 -96
WIRE -384 -32 -384 -80
WIRE -48 16 -160 16
WIRE 80 16 32 16
WIRE 624 32 624 -96
WIRE 864 32 864 0
WIRE 1088 32 1088 16
WIRE -160 48 -160 16
WIRE 624 128 624 112
WIRE 624 128 368 128
WIRE -160 144 -160 112
WIRE 624 144 624 128
WIRE 80 240 -48 240
WIRE -48 288 -48 240
WIRE 624 304 624 224
WIRE 624 304 368 304
WIRE 80 352 -48 352
WIRE 480 352 368 352
WIRE 624 352 624 304
WIRE -48 384 -48 352
WIRE 480 384 480 352
WIRE -48 496 -48 464
WIRE 224 496 224 384
WIRE 480 496 480 448
FLAG -48 496 0
FLAG 224 496 0
FLAG -384 -32 0
FLAG -48 288 0
FLAG 480 496 0
FLAG 624 352 0
FLAG -160 144 0
FLAG 864 32 0
FLAG 1088 32 0
FLAG 992 -96 vout
FLAG -160 -208 vin
SYMBOL PowerProducts\\ADP5054_chan1_2 224 80 R0
SYMATTR InstName U1
SYMBOL voltage -384 -176 R0
SYMATTR InstName V1
SYMATTR Value 5
SYMBOL res -64 368 R0
SYMATTR InstName R1
SYMATTR Value 31.6k
SYMBOL cap 464 384 R0
SYMATTR InstName C1
SYMATTR Value 1µ
SYMBOL res 48 0 R90
WINDOW 0 0 56 VBottom 2
WINDOW 3 32 56 VTop 2
SYMATTR InstName R2
SYMATTR Value 10k
SYMBOL cap -176 48 R0
SYMATTR InstName C2
SYMATTR Value 2.2n
SYMBOL res 608 128 R0
SYMATTR InstName R3
SYMATTR Value 24k
SYMBOL res 608 16 R0
SYMATTR InstName R4
SYMATTR Value 30k
SYMBOL cap 416 -192 R0
SYMATTR InstName C3
SYMATTR Value 0.1µ
SYMBOL ind 496 -80 R270
WINDOW 0 32 56 VTop 2
WINDOW 3 5 56 VBottom 2
SYMATTR InstName L1
SYMATTR Value 1µ
SYMBOL cap 848 -64 R0
SYMATTR InstName C4
SYMATTR Value 47µ
SYMBOL res 1072 -80 R0
SYMATTR InstName Rload
SYMATTR Value 9
TEXT -528 -496 Left 2 !.tran 2.5m startup
