Version 4
SHEET 1 880 1488
WIRE 384 704 384 656
WIRE 384 1472 384 1424
FLAG 384 704 0
FLAG 384 1472 0
SYMBOL PowerProducts/ADP5054_chan1_2 384 352 R0
SYMATTR InstName U1
SYMBOL PowerProducts/ADP5054_chan3_4 384 1168 R0
SYMATTR InstName U2
